* C:\Users\triim\Desktop\CPE\ESE\PLL_wiz\PLL_Wizard_Python.asc
A§VCO OUT_PFD 0 0 0 0 0 OUT_PLL 0 MODULATOR mark={mark} space ={space}
A§UP_PFD VDD 0 IN 0 N002 0 N001 0 DFLOP
A§DOWN_PFD VDD 0 N005 0 N002 0 N003 0 DFLOP
A4 N001 0 0 0 N003 0 N002 0 AND TD=1p
G1 VDD OUT_PFD N001 0 {Icp}
G2 OUT_PFD 0 N003 0 {Icp}
VIN_ALIM IN 0 SINE()
V§DC_ALIM VDD 0 3.3
R2 OUT_PFD N004 1k
C2 N004 0 1n
C1 OUT_PFD 0 1n
A§divider OUT_PLL 0 0 0 0 0 N005 0 COUNTER cycles={cycles}
V1 CONSIGNE 0 PULSE(0 1 0 1n 1n 1s)
* VCO
* Filtre
* PLL Wizard Python
* PFD
* Chaîne de retour
* Tension de référence
* Simulation
.backanno
.end
