Version 4
SHEET 1 1412 892
WIRE -224 -464 -336 -464
WIRE -128 -464 -224 -464
WIRE -496 -416 -1008 -416
WIRE -224 -288 -224 -464
WIRE -224 -288 -256 -288
WIRE -416 -272 -416 -368
WIRE -320 -272 -416 -272
WIRE -80 -256 -80 -448
WIRE 112 -256 -80 -256
WIRE 240 -256 112 -256
WIRE 384 -256 240 -256
WIRE 592 -256 384 -256
WIRE -224 -224 -256 -224
WIRE 384 -224 384 -256
WIRE 1024 -224 736 -224
WIRE 1088 -224 1024 -224
WIRE 240 -208 240 -256
WIRE -416 -176 -416 -272
WIRE -416 -176 -592 -176
WIRE -80 -160 -80 -256
WIRE 384 -112 384 -144
WIRE -224 -96 -224 -224
WIRE -224 -96 -336 -96
WIRE -128 -96 -224 -96
WIRE -496 -48 -896 -48
WIRE -592 48 -592 -176
WIRE -416 48 -416 0
WIRE -416 48 -592 48
WIRE -32 336 -48 336
WIRE 1024 368 1024 -224
WIRE 1024 368 192 368
WIRE -896 432 -896 -48
WIRE -48 432 -48 336
WIRE -48 432 -896 432
FLAG 1088 -224 OUT_PLL
IOPIN 1088 -224 Out
FLAG -1008 -416 IN
IOPIN -1008 -416 In
FLAG -128 -144 0
FLAG -128 -512 0
FLAG -80 -80 0
FLAG -80 -528 VDD
IOPIN -80 -528 BiDir
FLAG -272 -224 0
FLAG -416 -512 0
FLAG -416 -144 0
FLAG -864 848 0
FLAG -864 768 IN
IOPIN -864 768 In
FLAG -992 848 0
FLAG -992 768 VDD
IOPIN -992 768 BiDir
FLAG 384 -48 0
FLAG 240 -144 0
FLAG 192 464 0
FLAG -496 -464 VDD
IOPIN -496 -464 BiDir
FLAG -496 -96 VDD
IOPIN -496 -96 BiDir
FLAG -256 -272 0
FLAG -256 -256 0
FLAG -256 -240 0
FLAG 112 -256 OUT_PFD
IOPIN 112 -256 Out
FLAG -640 848 0
FLAG -640 768 CONSIGNE
IOPIN -640 768 Out
SYMBOL SpecialFunctions\\modulate 592 -256 R0
WINDOW 3 16 -20 Left 2
SYMATTR Value mark={mark} space ={space}
SYMATTR InstName VCO
SYMATTR Prefix ""
SYMBOL Digital\\dflop -416 -512 R0
SYMATTR InstName UP_PFD
SYMATTR Prefix ""
SYMBOL Digital\\dflop -416 -144 R0
SYMATTR InstName DOWN_PFD
SYMATTR Prefix ""
SYMBOL Digital\\and -288 -320 M0
WINDOW 3 16 52 Left 2
SYMATTR Value TD=1p
SYMATTR InstName A4
SYMBOL g -80 -432 M180
WINDOW 3 24 -12 Left 2
SYMATTR Value {Icp}
SYMATTR InstName G1
SYMBOL g -80 -64 M180
WINDOW 3 24 -12 Left 2
SYMATTR Value {Icp}
SYMATTR InstName G2
SYMBOL voltage -864 752 R0
WINDOW 123 24 124 Left 2
WINDOW 39 0 0 Left 0
WINDOW 3 24 44 Left 2
SYMATTR Value SINE()
SYMATTR InstName VIN_ALIM
SYMBOL voltage -992 752 R0
WINDOW 123 24 124 Left 2
WINDOW 39 0 0 Left 0
WINDOW 3 24 44 Left 2
SYMATTR Value 3.3
SYMATTR InstName DC_ALIM
SYMBOL res 368 -240 R0
WINDOW 3 36 68 Left 2
SYMATTR Value 1k
SYMATTR InstName R2
SYMBOL cap 368 -112 R0
WINDOW 3 24 36 Left 2
SYMATTR Value 1n
SYMATTR InstName C2
SYMBOL cap 224 -208 R0
WINDOW 3 24 36 Left 2
SYMATTR Value 1n
SYMATTR InstName C1
SYMBOL Digital\\counter 112 336 M0
WINDOW 3 -64 -52 Left 2
SYMATTR Value cycles={cycles}
SYMATTR InstName divider
SYMBOL voltage -640 752 R0
WINDOW 123 0 0 Left 0
WINDOW 39 0 0 Left 0
SYMATTR InstName V1
SYMATTR Value PULSE(0 1 0 1n 1n 1s)
TEXT 672 -424 Left 4 ;VCO
TEXT 256 -416 Left 4 ;Filtre
TEXT -232 -816 Left 6 ;PLL Wizard Python
TEXT -360 -704 Left 4 ;PFD
TEXT -32 544 Left 4 ;Chaîne de retour
TEXT -1048 624 Left 4 ;Tension de référence
TEXT -200 632 Left 4 ;Simulation
RECTANGLE Normal 912 -80 560 -368 2
RECTANGLE Normal -704 -656 128 176 2
RECTANGLE Normal -1088 -736 1264 576 2
RECTANGLE Normal 512 0 144 -384 2
